LAMMPS (11 Aug 2017)
###############################################################################
# MD simulation for Cu with NN potential
###############################################################################

###############################################################################
# VARIABLES
###############################################################################
clear
variable dt              equal  0.002                                                   # timestep (ps)
variable intThermo       equal  1                                                       # screen output interval (timesteps)
variable intRestart      equal  100                                                      # restart file interval (timesteps)
variable numSteps        equal  1000                                                      # total number of simulation timesteps (timesteps)
variable runnerCutoff    equal  6.01                                                    # largest symmetry function cutoff (Angstrom)
variable mass1           equal  63.546                                                  # mass for element 1 (Cu) (g/mol)
variable nameStartCfg    string "startcfg/cfg_lammps.Cu.10.config_7"                    # name of the starting configuration file
variable nameRestart1    string "traj/swap1.res"                                        # name of restart file 1
variable nameRestart2    string "traj/swap2.res"                                        # name of restart file 2
variable nameRestartEnd  string "traj/endcfg.res"                                       # name of final state restart file
variable runnerDir       string "RuNNer"                                                # directory containing RuNNer files
# set initial velocity distribution
variable initTemp        equal  300.0                                                   # initial temperature (K)
variable velSeed         equal  4928459                                                 # seed for random number generator
# NVT integrator (Nose-Hoover)
variable startTemp       equal  300.0                                                   # starting temperature for thermostat (K)
variable stopTemp        equal  300.0                                                   # final temperature for thermostat (K)
variable tDamp           equal  0.10                                                    # thermostat damping factor (ps)
# dump xyz trajectory file
variable intDumpXYZ      equal  1                                                      # xyz dump file interval (timesteps)
variable nameDumpXYZ     string "traj/states.xyz"                                       # xyz file name
# dump thermodynamic properties (temperature, pressure, potential energy, kinetic energy, integrator quantity)
variable intTD           equal  1                                                     # thermodynamics dump file interval (timesteps)
variable nameTD          string "traj/td"                                               # thermodynamics file name
variable varVolume       equal  vol                                                     # variable required to print volume
variable varKE           equal  ke                                                      # variable required to print kinetic energy
###############################################################################
# SETUP
###############################################################################
units metal                                                                             # define unit system (metal = Angstrom, eV, ps, g/mol)
boundary p p p                                                                          # set periodic boundary conditions
atom_style atomic                                                                       # set atomic style for particles
read_data startcfg/cfg_lammps.Cu.10.config_7
  orthogonal box = (0 0 0) to (2.47488 2.47488 27.75)
  reading atoms ...
  10 atoms
mass 1 63.546
pair_style runner dir RuNNer showew yes resetew no maxew 0
RuNNer pair style directory           : RuNNer/
Show extrapolation warnings           : yes
Show extrapolation warning summary    : no
Maximum allowed extrapolation warnings: 0
pair_coeff * * 6.01
timestep 0.002
restart 100 traj/swap1.res traj/swap2.res
velocity all create 300 4928459
fix INT all nvt temp 300 300 0.1
fix AVE_TD all ave/time 1 1 1 c_thermo_temp c_thermo_press v_varVolume c_thermo_pe v_varKE f_INT file traj/td mode scalar
dump XYZ all xyz 1 traj/states.xyz
dump_modify XYZ first yes sort id                                                       # modify xyz dump
dump lammpstrj all atom 1 "traj/states.lammpstrj"
dump_modify lammpstrj first yes sort id                                                       # modify xyz dump
thermo 1
###############################################################################
# SIMULATION
###############################################################################
run 1000
Starting RuNNer pair style setup...
Analyzing input.nn...
Number of elements:  1
Element  0: Cu (29)
Free atom energy of element  0 (Cu) =  -1.66262770E+03
normalize_nodes detected.
Number of hidden layers:  2
Element  0 (Cu): layer  0:  30 nodes
Element  0 (Cu): layer  1:  30 nodes
Element  0 (Cu): layer  2:   1 nodes
Element  0 (Cu): layer  0: activation function:  2
Element  0 (Cu): layer  1: activation function:  2
Element  0 (Cu): layer  2: activation function:  1
scale_symmetry_functions detected.
scalemin = -1.000000
scalemax = 1.000000
Element  0 (Cu): 51 symmetry functions
Finished analyzing input.nn.
Element  0 (Cu): layer  0 allocated, dim: ( 51, 30), act. func.:  2
Element  0 (Cu): layer  1 allocated, dim: ( 30, 30), act. func.:  2
Element  0 (Cu): layer  2 allocated, dim: ( 30,  1), act. func.:  1
Element  0 (Cu): Reading RuNNer/weights.029.data...
Element  0 (Cu): weights:   2460, bias:   61, total:   2521
Sorting according to   type.
Sorting according to     rc.
Sorting according to    eta.
Sorting according to   zeta.
Sorting according to lambda.
Sorting according to     rs.
Sorting according to     e1.
Sorting according to     e2.
Printing symmetry functions...
short range atomic symmetry functions element Cu
   1 Cu  2 Cu              0.001   0.000  11.338
   2 Cu  2 Cu              0.010   0.000  11.338
   3 Cu  2 Cu              0.020   0.000  11.338
   4 Cu  2 Cu              0.035   0.000  11.338
   5 Cu  2 Cu              0.060   0.000  11.338
   6 Cu  2 Cu              0.100   0.000  11.338
   7 Cu  2 Cu              0.200   0.000  11.338
   8 Cu  2 Cu              0.400   0.000  11.338
   9 Cu  3 Cu Cu   0.000  -1.000   1.000  11.338
  10 Cu  3 Cu Cu   0.000   1.000   1.000  11.338
  11 Cu  3 Cu Cu   0.000  -1.000   2.000  11.338
  12 Cu  3 Cu Cu   0.000   1.000   2.000  11.338
  13 Cu  3 Cu Cu   0.003  -1.000   1.000  11.338
  14 Cu  3 Cu Cu   0.003   1.000   1.000  11.338
  15 Cu  3 Cu Cu   0.003  -1.000   2.000  11.338
  16 Cu  3 Cu Cu   0.003   1.000   2.000  11.338
  17 Cu  3 Cu Cu   0.008  -1.000   1.000  11.338
  18 Cu  3 Cu Cu   0.008   1.000   1.000  11.338
  19 Cu  3 Cu Cu   0.008  -1.000   2.000  11.338
  20 Cu  3 Cu Cu   0.008   1.000   2.000  11.338
  21 Cu  3 Cu Cu   0.015  -1.000   1.000  11.338
  22 Cu  3 Cu Cu   0.015   1.000   1.000  11.338
  23 Cu  3 Cu Cu   0.015  -1.000   2.000  11.338
  24 Cu  3 Cu Cu   0.015   1.000   2.000  11.338
  25 Cu  3 Cu Cu   0.015  -1.000   4.000  11.338
  26 Cu  3 Cu Cu   0.015   1.000   4.000  11.338
  27 Cu  3 Cu Cu   0.015  -1.000  16.000  11.338
  28 Cu  3 Cu Cu   0.015   1.000  16.000  11.338
  29 Cu  3 Cu Cu   0.025  -1.000   1.000  11.338
  30 Cu  3 Cu Cu   0.025   1.000   1.000  11.338
  31 Cu  3 Cu Cu   0.025  -1.000   2.000  11.338
  32 Cu  3 Cu Cu   0.025   1.000   2.000  11.338
  33 Cu  3 Cu Cu   0.025  -1.000   4.000  11.338
  34 Cu  3 Cu Cu   0.025   1.000   4.000  11.338
  35 Cu  3 Cu Cu   0.025  -1.000  16.000  11.338
  36 Cu  3 Cu Cu   0.025   1.000  16.000  11.338
  37 Cu  3 Cu Cu   0.045  -1.000   1.000  11.338
  38 Cu  3 Cu Cu   0.045   1.000   1.000  11.338
  39 Cu  3 Cu Cu   0.045  -1.000   2.000  11.338
  40 Cu  3 Cu Cu   0.045   1.000   2.000  11.338
  41 Cu  3 Cu Cu   0.045  -1.000   4.000  11.338
  42 Cu  3 Cu Cu   0.045   1.000   4.000  11.338
  43 Cu  3 Cu Cu   0.045  -1.000  16.000  11.338
  44 Cu  3 Cu Cu   0.045   1.000  16.000  11.338
  45 Cu  3 Cu Cu   0.080  -1.000   1.000  11.338
  46 Cu  3 Cu Cu   0.080   1.000   1.000  11.338
  47 Cu  3 Cu Cu   0.080  -1.000   2.000  11.338
  48 Cu  3 Cu Cu   0.080   1.000   2.000  11.338
  49 Cu  3 Cu Cu   0.080  -1.000   4.000  11.338
  50 Cu  3 Cu Cu   0.080   1.000   4.000  11.338
  51 Cu  3 Cu Cu   0.080   1.000  16.000  11.338
Reading scaling.data...
Finished reading scaling.data.
rcmax = 11.338360
Grouping symmetry functions...
Printing symmetry function groups...
short range atomic symmetry functions groups of element Cu
   1 Cu  2 Cu                  *       *  11.338    8
   2 Cu  3 Cu Cu       *       *       *  11.338   43
RuNNer pair style setup completed.
  update every 1 steps, delay 10 steps, check yes
Step Temp E_pair E_mol TotEng Press
0          300   -452459.74            0   -452459.39    111027.37
Averages over the last 501 of 1001 rows, steps 500 to 1000:
Temp E_pair E_mol TotEng Press
299.289 -452460 0 -452459 14055.5
Loop time of 1.81134 on 12 procs for 1000 steps with 10 atoms

write_restart traj/endcfg.res
###############################################################################
# CLEAN UP
###############################################################################
undump XYZ
unfix AVE_TD
unfix INT
###############################################################################
