LAMMPS (11 Aug 2017)
###############################################################################
# MD simulation for CuZnO with NN potential
###############################################################################

###############################################################################
# VARIABLES
###############################################################################
clear
variable dt              equal  0.002                                                   # timestep (ps)
variable intThermo       equal  50                                                       # screen output interval (timesteps)
variable intRestart      equal  100                                                      # restart file interval (timesteps)
variable numSteps        equal  10000                                                      # total number of simulation timesteps (timesteps)
variable runnerCutoff    equal  6.01                                                    # largest symmetry function cutoff (Angstrom)
variable mass1           equal  15.999                                                  # mass for element 1 (O)  (g/mol)
variable mass2           equal  63.546                                                  # mass for element 2 (Cu) (g/mol)
variable mass3           equal  65.380                                                  # mass for element 3 (Zn) (g/mol)
variable nameStartCfg    string "startcfg/cfg_lammps.CuZnO.16.config_10"                # name of the starting configuration file
variable nameRestart1    string "traj/swap1.res"                                        # name of restart file 1
variable nameRestart2    string "traj/swap2.res"                                        # name of restart file 2
variable nameRestartEnd  string "traj/endcfg.res"                                       # name of final state restart file
variable runnerDir       string "RuNNer"                                                # directory containing RuNNer files
# set initial velocity distribution
variable initTemp        equal  300.0                                                   # initial temperature (K)
variable velSeed         equal  4928459                                                 # seed for random number generator
# NVT integrator (Nose-Hoover)
variable startTemp       equal  300.0                                                   # starting temperature for thermostat (K)
variable stopTemp        equal  300.0                                                   # final temperature for thermostat (K)
variable tDamp           equal  0.10                                                    # thermostat damping factor (ps)
# dump xyz trajectory file
variable intDumpXYZ      equal  100                                                      # xyz dump file interval (timesteps)
variable nameDumpXYZ     string "traj/states.xyz"                                       # xyz file name
# dump thermodynamic properties (temperature, pressure, potential energy, kinetic energy, integrator quantity)
variable intTD           equal  100                                                      # thermodynamics dump file interval (timesteps)
variable nameTD          string "traj/td"                                               # thermodynamics file name
variable varVolume       equal  vol                                                     # variable required to print volume
variable varKE           equal  ke                                                      # variable required to print kinetic energy
###############################################################################
# SETUP
###############################################################################
units metal                                                                             # define unit system (metal = Angstrom, eV, ps, g/mol)
boundary p p p                                                                          # set periodic boundary conditions
atom_style atomic                                                                       # set atomic style for particles
read_data startcfg/cfg_lammps.CuZnO.16.config_10
  orthogonal box = (0 0 0) to (4 4 24)
  reading atoms ...
  16 atoms
mass 1 15.999
mass 2 63.546
mass 3 65.38
pair_style runner dir RuNNer showew yes resetew no maxew 0
RuNNer pair style directory           : RuNNer/
Show extrapolation warnings           : yes
Show extrapolation warning summary    : no
Maximum allowed extrapolation warnings: 0
pair_coeff * * 6.01
timestep 0.002
restart 100 traj/swap1.res traj/swap2.res
velocity all create 300 4928459
fix INT all nvt temp 300 300 0.1
fix AVE_TD all ave/time 100 1 100 c_thermo_temp c_thermo_press v_varVolume c_thermo_pe v_varKE f_INT file traj/td mode scalar
dump XYZ all xyz 100 traj/states.xyz
dump_modify XYZ first yes sort id                                                       # modify xyz dump
thermo 50
###############################################################################
# SIMULATION
###############################################################################
run 10000
Starting RuNNer pair style setup...
Analyzing input.nn...
Number of elements:  3
Element  0:  O ( 8)
Element  1: Cu (29)
Element  2: Zn (30)
Free atom energy of element  2 (Zn) =  -1.80501857E+03
Free atom energy of element  1 (Cu) =  -1.66262770E+03
Free atom energy of element  0 ( O) =  -7.51009549E+01
Number of hidden layers:  2
Element  0 ( O): layer  0:  10 nodes
Element  0 ( O): layer  1:  10 nodes
Element  0 ( O): layer  2:   1 nodes
Element  1 (Cu): layer  0:  10 nodes
Element  1 (Cu): layer  1:  10 nodes
Element  1 (Cu): layer  2:   1 nodes
Element  2 (Zn): layer  0:  10 nodes
Element  2 (Zn): layer  1:  10 nodes
Element  2 (Zn): layer  2:   1 nodes
Element  0 ( O): layer  0: activation function:  2
Element  0 ( O): layer  1: activation function:  2
Element  0 ( O): layer  2: activation function:  1
Element  1 (Cu): layer  0: activation function:  2
Element  1 (Cu): layer  1: activation function:  2
Element  1 (Cu): layer  2: activation function:  1
Element  2 (Zn): layer  0: activation function:  2
Element  2 (Zn): layer  1: activation function:  2
Element  2 (Zn): layer  2: activation function:  1
scale_symmetry_functions detected.
normalize_nodes detected.
scalemin = 0.000000
scalemax = 1.000000
Element  0 ( O): 156 symmetry functions
Element  1 (Cu): 156 symmetry functions
Element  2 (Zn): 156 symmetry functions
Finished analyzing input.nn.
Element  0 ( O): layer  0 allocated, dim: (156, 10), act. func.:  2
Element  0 ( O): layer  1 allocated, dim: ( 10, 10), act. func.:  2
Element  0 ( O): layer  2 allocated, dim: ( 10,  1), act. func.:  1
Element  1 (Cu): layer  0 allocated, dim: (156, 10), act. func.:  2
Element  1 (Cu): layer  1 allocated, dim: ( 10, 10), act. func.:  2
Element  1 (Cu): layer  2 allocated, dim: ( 10,  1), act. func.:  1
Element  2 (Zn): layer  0 allocated, dim: (156, 10), act. func.:  2
Element  2 (Zn): layer  1 allocated, dim: ( 10, 10), act. func.:  2
Element  2 (Zn): layer  2 allocated, dim: ( 10,  1), act. func.:  1
Element  0 ( O): Reading RuNNer/weights.008.data...
Element  0 ( O): weights:   1670, bias:   21, total:   1691
Element  1 (Cu): Reading RuNNer/weights.029.data...
Element  1 (Cu): weights:   1670, bias:   21, total:   1691
Element  2 (Zn): Reading RuNNer/weights.030.data...
Element  2 (Zn): weights:   1670, bias:   21, total:   1691
Sorting according to   type.
Sorting according to     rc.
Sorting according to    eta.
Sorting according to   zeta.
Sorting according to lambda.
Sorting according to     rs.
Sorting according to     e1.
Sorting according to     e2.
Printing symmetry functions...
short range atomic symmetry functions element  O
   1  O  2  O              0.001   0.000  12.000
   2  O  2 Cu              0.001   0.000  12.000
   3  O  2 Zn              0.001   0.000  12.000
   4  O  2  O              0.010   0.000  12.000
   5  O  2 Cu              0.010   0.000  12.000
   6  O  2 Zn              0.010   0.000  12.000
   7  O  2  O              0.020   0.000  12.000
   8  O  2 Cu              0.020   0.000  12.000
   9  O  2 Zn              0.020   0.000  12.000
  10  O  2  O              0.035   0.000  12.000
  11  O  2 Cu              0.035   0.000  12.000
  12  O  2 Zn              0.035   0.000  12.000
  13  O  2  O              0.060   0.000  12.000
  14  O  2 Cu              0.060   0.000  12.000
  15  O  2 Zn              0.060   0.000  12.000
  16  O  2  O              0.100   0.000  12.000
  17  O  2 Cu              0.100   0.000  12.000
  18  O  2 Zn              0.100   0.000  12.000
  19  O  2  O              0.200   0.000  12.000
  20  O  2 Cu              0.200   0.000  12.000
  21  O  2 Zn              0.200   0.000  12.000
  22  O  2  O              0.400   0.000  12.000
  23  O  2 Cu              0.400   0.000  12.000
  24  O  2 Zn              0.400   0.000  12.000
  25  O  3  O  O   0.000  -1.000   1.000  12.000
  26  O  3  O Cu   0.000  -1.000   1.000  12.000
  27  O  3  O Zn   0.000  -1.000   1.000  12.000
  28  O  3 Cu Cu   0.000  -1.000   1.000  12.000
  29  O  3 Cu Zn   0.000  -1.000   1.000  12.000
  30  O  3 Zn Zn   0.000  -1.000   1.000  12.000
  31  O  3  O  O   0.000   1.000   1.000  12.000
  32  O  3  O Cu   0.000   1.000   1.000  12.000
  33  O  3  O Zn   0.000   1.000   1.000  12.000
  34  O  3 Cu Cu   0.000   1.000   1.000  12.000
  35  O  3 Cu Zn   0.000   1.000   1.000  12.000
  36  O  3 Zn Zn   0.000   1.000   1.000  12.000
  37  O  3  O  O   0.000  -1.000   2.000  12.000
  38  O  3  O Cu   0.000  -1.000   2.000  12.000
  39  O  3  O Zn   0.000  -1.000   2.000  12.000
  40  O  3 Cu Cu   0.000  -1.000   2.000  12.000
  41  O  3 Cu Zn   0.000  -1.000   2.000  12.000
  42  O  3 Zn Zn   0.000  -1.000   2.000  12.000
  43  O  3  O  O   0.000   1.000   2.000  12.000
  44  O  3  O Cu   0.000   1.000   2.000  12.000
  45  O  3  O Zn   0.000   1.000   2.000  12.000
  46  O  3 Cu Cu   0.000   1.000   2.000  12.000
  47  O  3 Cu Zn   0.000   1.000   2.000  12.000
  48  O  3 Zn Zn   0.000   1.000   2.000  12.000
  49  O  3  O  O   0.003  -1.000   1.000  12.000
  50  O  3  O Cu   0.003  -1.000   1.000  12.000
  51  O  3  O Zn   0.003  -1.000   1.000  12.000
  52  O  3 Cu Cu   0.003  -1.000   1.000  12.000
  53  O  3 Cu Zn   0.003  -1.000   1.000  12.000
  54  O  3 Zn Zn   0.003  -1.000   1.000  12.000
  55  O  3  O  O   0.003   1.000   1.000  12.000
  56  O  3  O Cu   0.003   1.000   1.000  12.000
  57  O  3  O Zn   0.003   1.000   1.000  12.000
  58  O  3 Cu Cu   0.003   1.000   1.000  12.000
  59  O  3 Cu Zn   0.003   1.000   1.000  12.000
  60  O  3 Zn Zn   0.003   1.000   1.000  12.000
  61  O  3  O  O   0.003  -1.000   2.000  12.000
  62  O  3  O Cu   0.003  -1.000   2.000  12.000
  63  O  3  O Zn   0.003  -1.000   2.000  12.000
  64  O  3 Cu Cu   0.003  -1.000   2.000  12.000
  65  O  3 Cu Zn   0.003  -1.000   2.000  12.000
  66  O  3 Zn Zn   0.003  -1.000   2.000  12.000
  67  O  3  O  O   0.003   1.000   2.000  12.000
  68  O  3  O Cu   0.003   1.000   2.000  12.000
  69  O  3  O Zn   0.003   1.000   2.000  12.000
  70  O  3 Cu Cu   0.003   1.000   2.000  12.000
  71  O  3 Cu Zn   0.003   1.000   2.000  12.000
  72  O  3 Zn Zn   0.003   1.000   2.000  12.000
  73  O  3  O  O   0.008   1.000   1.000  12.000
  74  O  3  O Cu   0.008   1.000   1.000  12.000
  75  O  3  O Zn   0.008   1.000   1.000  12.000
  76  O  3 Cu Cu   0.008   1.000   1.000  12.000
  77  O  3 Cu Zn   0.008   1.000   1.000  12.000
  78  O  3 Zn Zn   0.008   1.000   1.000  12.000
  79  O  3  O  O   0.008   1.000   2.000  12.000
  80  O  3  O Cu   0.008   1.000   2.000  12.000
  81  O  3  O Zn   0.008   1.000   2.000  12.000
  82  O  3 Cu Cu   0.008   1.000   2.000  12.000
  83  O  3 Cu Zn   0.008   1.000   2.000  12.000
  84  O  3 Zn Zn   0.008   1.000   2.000  12.000
  85  O  3  O  O   0.015   1.000   1.000  12.000
  86  O  3  O Cu   0.015   1.000   1.000  12.000
  87  O  3  O Zn   0.015   1.000   1.000  12.000
  88  O  3 Cu Cu   0.015   1.000   1.000  12.000
  89  O  3 Cu Zn   0.015   1.000   1.000  12.000
  90  O  3 Zn Zn   0.015   1.000   1.000  12.000
  91  O  3  O  O   0.015   1.000   2.000  12.000
  92  O  3  O Cu   0.015   1.000   2.000  12.000
  93  O  3  O Zn   0.015   1.000   2.000  12.000
  94  O  3 Cu Cu   0.015   1.000   2.000  12.000
  95  O  3 Cu Zn   0.015   1.000   2.000  12.000
  96  O  3 Zn Zn   0.015   1.000   2.000  12.000
  97  O  3  O  O   0.015   1.000   4.000  12.000
  98  O  3  O Cu   0.015   1.000   4.000  12.000
  99  O  3  O Zn   0.015   1.000   4.000  12.000
 100  O  3 Cu Cu   0.015   1.000   4.000  12.000
 101  O  3 Cu Zn   0.015   1.000   4.000  12.000
 102  O  3 Zn Zn   0.015   1.000   4.000  12.000
 103  O  3  O  O   0.015   1.000  16.000  12.000
 104  O  3  O Cu   0.015   1.000  16.000  12.000
 105  O  3  O Zn   0.015   1.000  16.000  12.000
 106  O  3 Cu Cu   0.015   1.000  16.000  12.000
 107  O  3 Cu Zn   0.015   1.000  16.000  12.000
 108  O  3 Zn Zn   0.015   1.000  16.000  12.000
 109  O  3  O  O   0.025   1.000   1.000  12.000
 110  O  3  O Cu   0.025   1.000   1.000  12.000
 111  O  3  O Zn   0.025   1.000   1.000  12.000
 112  O  3 Cu Cu   0.025   1.000   1.000  12.000
 113  O  3 Cu Zn   0.025   1.000   1.000  12.000
 114  O  3 Zn Zn   0.025   1.000   1.000  12.000
 115  O  3  O  O   0.025   1.000   2.000  12.000
 116  O  3  O Cu   0.025   1.000   2.000  12.000
 117  O  3  O Zn   0.025   1.000   2.000  12.000
 118  O  3 Cu Cu   0.025   1.000   2.000  12.000
 119  O  3 Cu Zn   0.025   1.000   2.000  12.000
 120  O  3 Zn Zn   0.025   1.000   2.000  12.000
 121  O  3  O  O   0.025   1.000   4.000  12.000
 122  O  3  O Cu   0.025   1.000   4.000  12.000
 123  O  3  O Zn   0.025   1.000   4.000  12.000
 124  O  3 Cu Cu   0.025   1.000   4.000  12.000
 125  O  3 Cu Zn   0.025   1.000   4.000  12.000
 126  O  3 Zn Zn   0.025   1.000   4.000  12.000
 127  O  3  O  O   0.025   1.000  16.000  12.000
 128  O  3  O Cu   0.025   1.000  16.000  12.000
 129  O  3  O Zn   0.025   1.000  16.000  12.000
 130  O  3 Cu Cu   0.025   1.000  16.000  12.000
 131  O  3 Cu Zn   0.025   1.000  16.000  12.000
 132  O  3 Zn Zn   0.025   1.000  16.000  12.000
 133  O  3  O  O   0.045   1.000   1.000  12.000
 134  O  3  O Cu   0.045   1.000   1.000  12.000
 135  O  3  O Zn   0.045   1.000   1.000  12.000
 136  O  3 Cu Cu   0.045   1.000   1.000  12.000
 137  O  3 Cu Zn   0.045   1.000   1.000  12.000
 138  O  3 Zn Zn   0.045   1.000   1.000  12.000
 139  O  3  O  O   0.045   1.000   2.000  12.000
 140  O  3  O Cu   0.045   1.000   2.000  12.000
 141  O  3  O Zn   0.045   1.000   2.000  12.000
 142  O  3 Cu Cu   0.045   1.000   2.000  12.000
 143  O  3 Cu Zn   0.045   1.000   2.000  12.000
 144  O  3 Zn Zn   0.045   1.000   2.000  12.000
 145  O  3  O  O   0.045   1.000   4.000  12.000
 146  O  3  O Cu   0.045   1.000   4.000  12.000
 147  O  3  O Zn   0.045   1.000   4.000  12.000
 148  O  3 Cu Cu   0.045   1.000   4.000  12.000
 149  O  3 Cu Zn   0.045   1.000   4.000  12.000
 150  O  3 Zn Zn   0.045   1.000   4.000  12.000
 151  O  3  O  O   0.045   1.000  16.000  12.000
 152  O  3  O Cu   0.045   1.000  16.000  12.000
 153  O  3  O Zn   0.045   1.000  16.000  12.000
 154  O  3 Cu Cu   0.045   1.000  16.000  12.000
 155  O  3 Cu Zn   0.045   1.000  16.000  12.000
 156  O  3 Zn Zn   0.045   1.000  16.000  12.000
short range atomic symmetry functions element Cu
   1 Cu  2  O              0.001   0.000  12.000
   2 Cu  2 Cu              0.001   0.000  12.000
   3 Cu  2 Zn              0.001   0.000  12.000
   4 Cu  2  O              0.010   0.000  12.000
   5 Cu  2 Cu              0.010   0.000  12.000
   6 Cu  2 Zn              0.010   0.000  12.000
   7 Cu  2  O              0.020   0.000  12.000
   8 Cu  2 Cu              0.020   0.000  12.000
   9 Cu  2 Zn              0.020   0.000  12.000
  10 Cu  2  O              0.035   0.000  12.000
  11 Cu  2 Cu              0.035   0.000  12.000
  12 Cu  2 Zn              0.035   0.000  12.000
  13 Cu  2  O              0.060   0.000  12.000
  14 Cu  2 Cu              0.060   0.000  12.000
  15 Cu  2 Zn              0.060   0.000  12.000
  16 Cu  2  O              0.100   0.000  12.000
  17 Cu  2 Cu              0.100   0.000  12.000
  18 Cu  2 Zn              0.100   0.000  12.000
  19 Cu  2  O              0.200   0.000  12.000
  20 Cu  2 Cu              0.200   0.000  12.000
  21 Cu  2 Zn              0.200   0.000  12.000
  22 Cu  2  O              0.400   0.000  12.000
  23 Cu  2 Cu              0.400   0.000  12.000
  24 Cu  2 Zn              0.400   0.000  12.000
  25 Cu  3  O  O   0.000  -1.000   1.000  12.000
  26 Cu  3  O Cu   0.000  -1.000   1.000  12.000
  27 Cu  3  O Zn   0.000  -1.000   1.000  12.000
  28 Cu  3 Cu Cu   0.000  -1.000   1.000  12.000
  29 Cu  3 Cu Zn   0.000  -1.000   1.000  12.000
  30 Cu  3 Zn Zn   0.000  -1.000   1.000  12.000
  31 Cu  3  O  O   0.000   1.000   1.000  12.000
  32 Cu  3  O Cu   0.000   1.000   1.000  12.000
  33 Cu  3  O Zn   0.000   1.000   1.000  12.000
  34 Cu  3 Cu Cu   0.000   1.000   1.000  12.000
  35 Cu  3 Cu Zn   0.000   1.000   1.000  12.000
  36 Cu  3 Zn Zn   0.000   1.000   1.000  12.000
  37 Cu  3  O  O   0.000  -1.000   2.000  12.000
  38 Cu  3  O Cu   0.000  -1.000   2.000  12.000
  39 Cu  3  O Zn   0.000  -1.000   2.000  12.000
  40 Cu  3 Cu Cu   0.000  -1.000   2.000  12.000
  41 Cu  3 Cu Zn   0.000  -1.000   2.000  12.000
  42 Cu  3 Zn Zn   0.000  -1.000   2.000  12.000
  43 Cu  3  O  O   0.000   1.000   2.000  12.000
  44 Cu  3  O Cu   0.000   1.000   2.000  12.000
  45 Cu  3  O Zn   0.000   1.000   2.000  12.000
  46 Cu  3 Cu Cu   0.000   1.000   2.000  12.000
  47 Cu  3 Cu Zn   0.000   1.000   2.000  12.000
  48 Cu  3 Zn Zn   0.000   1.000   2.000  12.000
  49 Cu  3  O  O   0.003  -1.000   1.000  12.000
  50 Cu  3  O Cu   0.003  -1.000   1.000  12.000
  51 Cu  3  O Zn   0.003  -1.000   1.000  12.000
  52 Cu  3 Cu Cu   0.003  -1.000   1.000  12.000
  53 Cu  3 Cu Zn   0.003  -1.000   1.000  12.000
  54 Cu  3 Zn Zn   0.003  -1.000   1.000  12.000
  55 Cu  3  O  O   0.003   1.000   1.000  12.000
  56 Cu  3  O Cu   0.003   1.000   1.000  12.000
  57 Cu  3  O Zn   0.003   1.000   1.000  12.000
  58 Cu  3 Cu Cu   0.003   1.000   1.000  12.000
  59 Cu  3 Cu Zn   0.003   1.000   1.000  12.000
  60 Cu  3 Zn Zn   0.003   1.000   1.000  12.000
  61 Cu  3  O  O   0.003  -1.000   2.000  12.000
  62 Cu  3  O Cu   0.003  -1.000   2.000  12.000
  63 Cu  3  O Zn   0.003  -1.000   2.000  12.000
  64 Cu  3 Cu Cu   0.003  -1.000   2.000  12.000
  65 Cu  3 Cu Zn   0.003  -1.000   2.000  12.000
  66 Cu  3 Zn Zn   0.003  -1.000   2.000  12.000
  67 Cu  3  O  O   0.003   1.000   2.000  12.000
  68 Cu  3  O Cu   0.003   1.000   2.000  12.000
  69 Cu  3  O Zn   0.003   1.000   2.000  12.000
  70 Cu  3 Cu Cu   0.003   1.000   2.000  12.000
  71 Cu  3 Cu Zn   0.003   1.000   2.000  12.000
  72 Cu  3 Zn Zn   0.003   1.000   2.000  12.000
  73 Cu  3  O  O   0.008   1.000   1.000  12.000
  74 Cu  3  O Cu   0.008   1.000   1.000  12.000
  75 Cu  3  O Zn   0.008   1.000   1.000  12.000
  76 Cu  3 Cu Cu   0.008   1.000   1.000  12.000
  77 Cu  3 Cu Zn   0.008   1.000   1.000  12.000
  78 Cu  3 Zn Zn   0.008   1.000   1.000  12.000
  79 Cu  3  O  O   0.008   1.000   2.000  12.000
  80 Cu  3  O Cu   0.008   1.000   2.000  12.000
  81 Cu  3  O Zn   0.008   1.000   2.000  12.000
  82 Cu  3 Cu Cu   0.008   1.000   2.000  12.000
  83 Cu  3 Cu Zn   0.008   1.000   2.000  12.000
  84 Cu  3 Zn Zn   0.008   1.000   2.000  12.000
  85 Cu  3  O  O   0.015   1.000   1.000  12.000
  86 Cu  3  O Cu   0.015   1.000   1.000  12.000
  87 Cu  3  O Zn   0.015   1.000   1.000  12.000
  88 Cu  3 Cu Cu   0.015   1.000   1.000  12.000
  89 Cu  3 Cu Zn   0.015   1.000   1.000  12.000
  90 Cu  3 Zn Zn   0.015   1.000   1.000  12.000
  91 Cu  3  O  O   0.015   1.000   2.000  12.000
  92 Cu  3  O Cu   0.015   1.000   2.000  12.000
  93 Cu  3  O Zn   0.015   1.000   2.000  12.000
  94 Cu  3 Cu Cu   0.015   1.000   2.000  12.000
  95 Cu  3 Cu Zn   0.015   1.000   2.000  12.000
  96 Cu  3 Zn Zn   0.015   1.000   2.000  12.000
  97 Cu  3  O  O   0.015   1.000   4.000  12.000
  98 Cu  3  O Cu   0.015   1.000   4.000  12.000
  99 Cu  3  O Zn   0.015   1.000   4.000  12.000
 100 Cu  3 Cu Cu   0.015   1.000   4.000  12.000
 101 Cu  3 Cu Zn   0.015   1.000   4.000  12.000
 102 Cu  3 Zn Zn   0.015   1.000   4.000  12.000
 103 Cu  3  O  O   0.015   1.000  16.000  12.000
 104 Cu  3  O Cu   0.015   1.000  16.000  12.000
 105 Cu  3  O Zn   0.015   1.000  16.000  12.000
 106 Cu  3 Cu Cu   0.015   1.000  16.000  12.000
 107 Cu  3 Cu Zn   0.015   1.000  16.000  12.000
 108 Cu  3 Zn Zn   0.015   1.000  16.000  12.000
 109 Cu  3  O  O   0.025   1.000   1.000  12.000
 110 Cu  3  O Cu   0.025   1.000   1.000  12.000
 111 Cu  3  O Zn   0.025   1.000   1.000  12.000
 112 Cu  3 Cu Cu   0.025   1.000   1.000  12.000
 113 Cu  3 Cu Zn   0.025   1.000   1.000  12.000
 114 Cu  3 Zn Zn   0.025   1.000   1.000  12.000
 115 Cu  3  O  O   0.025   1.000   2.000  12.000
 116 Cu  3  O Cu   0.025   1.000   2.000  12.000
 117 Cu  3  O Zn   0.025   1.000   2.000  12.000
 118 Cu  3 Cu Cu   0.025   1.000   2.000  12.000
 119 Cu  3 Cu Zn   0.025   1.000   2.000  12.000
 120 Cu  3 Zn Zn   0.025   1.000   2.000  12.000
 121 Cu  3  O  O   0.025   1.000   4.000  12.000
 122 Cu  3  O Cu   0.025   1.000   4.000  12.000
 123 Cu  3  O Zn   0.025   1.000   4.000  12.000
 124 Cu  3 Cu Cu   0.025   1.000   4.000  12.000
 125 Cu  3 Cu Zn   0.025   1.000   4.000  12.000
 126 Cu  3 Zn Zn   0.025   1.000   4.000  12.000
 127 Cu  3  O  O   0.025   1.000  16.000  12.000
 128 Cu  3  O Cu   0.025   1.000  16.000  12.000
 129 Cu  3  O Zn   0.025   1.000  16.000  12.000
 130 Cu  3 Cu Cu   0.025   1.000  16.000  12.000
 131 Cu  3 Cu Zn   0.025   1.000  16.000  12.000
 132 Cu  3 Zn Zn   0.025   1.000  16.000  12.000
 133 Cu  3  O  O   0.045   1.000   1.000  12.000
 134 Cu  3  O Cu   0.045   1.000   1.000  12.000
 135 Cu  3  O Zn   0.045   1.000   1.000  12.000
 136 Cu  3 Cu Cu   0.045   1.000   1.000  12.000
 137 Cu  3 Cu Zn   0.045   1.000   1.000  12.000
 138 Cu  3 Zn Zn   0.045   1.000   1.000  12.000
 139 Cu  3  O  O   0.045   1.000   2.000  12.000
 140 Cu  3  O Cu   0.045   1.000   2.000  12.000
 141 Cu  3  O Zn   0.045   1.000   2.000  12.000
 142 Cu  3 Cu Cu   0.045   1.000   2.000  12.000
 143 Cu  3 Cu Zn   0.045   1.000   2.000  12.000
 144 Cu  3 Zn Zn   0.045   1.000   2.000  12.000
 145 Cu  3  O  O   0.045   1.000   4.000  12.000
 146 Cu  3  O Cu   0.045   1.000   4.000  12.000
 147 Cu  3  O Zn   0.045   1.000   4.000  12.000
 148 Cu  3 Cu Cu   0.045   1.000   4.000  12.000
 149 Cu  3 Cu Zn   0.045   1.000   4.000  12.000
 150 Cu  3 Zn Zn   0.045   1.000   4.000  12.000
 151 Cu  3  O  O   0.045   1.000  16.000  12.000
 152 Cu  3  O Cu   0.045   1.000  16.000  12.000
 153 Cu  3  O Zn   0.045   1.000  16.000  12.000
 154 Cu  3 Cu Cu   0.045   1.000  16.000  12.000
 155 Cu  3 Cu Zn   0.045   1.000  16.000  12.000
 156 Cu  3 Zn Zn   0.045   1.000  16.000  12.000
short range atomic symmetry functions element Zn
   1 Zn  2  O              0.001   0.000  12.000
   2 Zn  2 Cu              0.001   0.000  12.000
   3 Zn  2 Zn              0.001   0.000  12.000
   4 Zn  2  O              0.010   0.000  12.000
   5 Zn  2 Cu              0.010   0.000  12.000
   6 Zn  2 Zn              0.010   0.000  12.000
   7 Zn  2  O              0.020   0.000  12.000
   8 Zn  2 Cu              0.020   0.000  12.000
   9 Zn  2 Zn              0.020   0.000  12.000
  10 Zn  2  O              0.035   0.000  12.000
  11 Zn  2 Cu              0.035   0.000  12.000
  12 Zn  2 Zn              0.035   0.000  12.000
  13 Zn  2  O              0.060   0.000  12.000
  14 Zn  2 Cu              0.060   0.000  12.000
  15 Zn  2 Zn              0.060   0.000  12.000
  16 Zn  2  O              0.100   0.000  12.000
  17 Zn  2 Cu              0.100   0.000  12.000
  18 Zn  2 Zn              0.100   0.000  12.000
  19 Zn  2  O              0.200   0.000  12.000
  20 Zn  2 Cu              0.200   0.000  12.000
  21 Zn  2 Zn              0.200   0.000  12.000
  22 Zn  2  O              0.400   0.000  12.000
  23 Zn  2 Cu              0.400   0.000  12.000
  24 Zn  2 Zn              0.400   0.000  12.000
  25 Zn  3  O  O   0.000  -1.000   1.000  12.000
  26 Zn  3  O Cu   0.000  -1.000   1.000  12.000
  27 Zn  3  O Zn   0.000  -1.000   1.000  12.000
  28 Zn  3 Cu Cu   0.000  -1.000   1.000  12.000
  29 Zn  3 Cu Zn   0.000  -1.000   1.000  12.000
  30 Zn  3 Zn Zn   0.000  -1.000   1.000  12.000
  31 Zn  3  O  O   0.000   1.000   1.000  12.000
  32 Zn  3  O Cu   0.000   1.000   1.000  12.000
  33 Zn  3  O Zn   0.000   1.000   1.000  12.000
  34 Zn  3 Cu Cu   0.000   1.000   1.000  12.000
  35 Zn  3 Cu Zn   0.000   1.000   1.000  12.000
  36 Zn  3 Zn Zn   0.000   1.000   1.000  12.000
  37 Zn  3  O  O   0.000  -1.000   2.000  12.000
  38 Zn  3  O Cu   0.000  -1.000   2.000  12.000
  39 Zn  3  O Zn   0.000  -1.000   2.000  12.000
  40 Zn  3 Cu Cu   0.000  -1.000   2.000  12.000
  41 Zn  3 Cu Zn   0.000  -1.000   2.000  12.000
  42 Zn  3 Zn Zn   0.000  -1.000   2.000  12.000
  43 Zn  3  O  O   0.000   1.000   2.000  12.000
  44 Zn  3  O Cu   0.000   1.000   2.000  12.000
  45 Zn  3  O Zn   0.000   1.000   2.000  12.000
  46 Zn  3 Cu Cu   0.000   1.000   2.000  12.000
  47 Zn  3 Cu Zn   0.000   1.000   2.000  12.000
  48 Zn  3 Zn Zn   0.000   1.000   2.000  12.000
  49 Zn  3  O  O   0.003  -1.000   1.000  12.000
  50 Zn  3  O Cu   0.003  -1.000   1.000  12.000
  51 Zn  3  O Zn   0.003  -1.000   1.000  12.000
  52 Zn  3 Cu Cu   0.003  -1.000   1.000  12.000
  53 Zn  3 Cu Zn   0.003  -1.000   1.000  12.000
  54 Zn  3 Zn Zn   0.003  -1.000   1.000  12.000
  55 Zn  3  O  O   0.003   1.000   1.000  12.000
  56 Zn  3  O Cu   0.003   1.000   1.000  12.000
  57 Zn  3  O Zn   0.003   1.000   1.000  12.000
  58 Zn  3 Cu Cu   0.003   1.000   1.000  12.000
  59 Zn  3 Cu Zn   0.003   1.000   1.000  12.000
  60 Zn  3 Zn Zn   0.003   1.000   1.000  12.000
  61 Zn  3  O  O   0.003  -1.000   2.000  12.000
  62 Zn  3  O Cu   0.003  -1.000   2.000  12.000
  63 Zn  3  O Zn   0.003  -1.000   2.000  12.000
  64 Zn  3 Cu Cu   0.003  -1.000   2.000  12.000
  65 Zn  3 Cu Zn   0.003  -1.000   2.000  12.000
  66 Zn  3 Zn Zn   0.003  -1.000   2.000  12.000
  67 Zn  3  O  O   0.003   1.000   2.000  12.000
  68 Zn  3  O Cu   0.003   1.000   2.000  12.000
  69 Zn  3  O Zn   0.003   1.000   2.000  12.000
  70 Zn  3 Cu Cu   0.003   1.000   2.000  12.000
  71 Zn  3 Cu Zn   0.003   1.000   2.000  12.000
  72 Zn  3 Zn Zn   0.003   1.000   2.000  12.000
  73 Zn  3  O  O   0.008   1.000   1.000  12.000
  74 Zn  3  O Cu   0.008   1.000   1.000  12.000
  75 Zn  3  O Zn   0.008   1.000   1.000  12.000
  76 Zn  3 Cu Cu   0.008   1.000   1.000  12.000
  77 Zn  3 Cu Zn   0.008   1.000   1.000  12.000
  78 Zn  3 Zn Zn   0.008   1.000   1.000  12.000
  79 Zn  3  O  O   0.008   1.000   2.000  12.000
  80 Zn  3  O Cu   0.008   1.000   2.000  12.000
  81 Zn  3  O Zn   0.008   1.000   2.000  12.000
  82 Zn  3 Cu Cu   0.008   1.000   2.000  12.000
  83 Zn  3 Cu Zn   0.008   1.000   2.000  12.000
  84 Zn  3 Zn Zn   0.008   1.000   2.000  12.000
  85 Zn  3  O  O   0.015   1.000   1.000  12.000
  86 Zn  3  O Cu   0.015   1.000   1.000  12.000
  87 Zn  3  O Zn   0.015   1.000   1.000  12.000
  88 Zn  3 Cu Cu   0.015   1.000   1.000  12.000
  89 Zn  3 Cu Zn   0.015   1.000   1.000  12.000
  90 Zn  3 Zn Zn   0.015   1.000   1.000  12.000
  91 Zn  3  O  O   0.015   1.000   2.000  12.000
  92 Zn  3  O Cu   0.015   1.000   2.000  12.000
  93 Zn  3  O Zn   0.015   1.000   2.000  12.000
  94 Zn  3 Cu Cu   0.015   1.000   2.000  12.000
  95 Zn  3 Cu Zn   0.015   1.000   2.000  12.000
  96 Zn  3 Zn Zn   0.015   1.000   2.000  12.000
  97 Zn  3  O  O   0.015   1.000   4.000  12.000
  98 Zn  3  O Cu   0.015   1.000   4.000  12.000
  99 Zn  3  O Zn   0.015   1.000   4.000  12.000
 100 Zn  3 Cu Cu   0.015   1.000   4.000  12.000
 101 Zn  3 Cu Zn   0.015   1.000   4.000  12.000
 102 Zn  3 Zn Zn   0.015   1.000   4.000  12.000
 103 Zn  3  O  O   0.015   1.000  16.000  12.000
 104 Zn  3  O Cu   0.015   1.000  16.000  12.000
 105 Zn  3  O Zn   0.015   1.000  16.000  12.000
 106 Zn  3 Cu Cu   0.015   1.000  16.000  12.000
 107 Zn  3 Cu Zn   0.015   1.000  16.000  12.000
 108 Zn  3 Zn Zn   0.015   1.000  16.000  12.000
 109 Zn  3  O  O   0.025   1.000   1.000  12.000
 110 Zn  3  O Cu   0.025   1.000   1.000  12.000
 111 Zn  3  O Zn   0.025   1.000   1.000  12.000
 112 Zn  3 Cu Cu   0.025   1.000   1.000  12.000
 113 Zn  3 Cu Zn   0.025   1.000   1.000  12.000
 114 Zn  3 Zn Zn   0.025   1.000   1.000  12.000
 115 Zn  3  O  O   0.025   1.000   2.000  12.000
 116 Zn  3  O Cu   0.025   1.000   2.000  12.000
 117 Zn  3  O Zn   0.025   1.000   2.000  12.000
 118 Zn  3 Cu Cu   0.025   1.000   2.000  12.000
 119 Zn  3 Cu Zn   0.025   1.000   2.000  12.000
 120 Zn  3 Zn Zn   0.025   1.000   2.000  12.000
 121 Zn  3  O  O   0.025   1.000   4.000  12.000
 122 Zn  3  O Cu   0.025   1.000   4.000  12.000
 123 Zn  3  O Zn   0.025   1.000   4.000  12.000
 124 Zn  3 Cu Cu   0.025   1.000   4.000  12.000
 125 Zn  3 Cu Zn   0.025   1.000   4.000  12.000
 126 Zn  3 Zn Zn   0.025   1.000   4.000  12.000
 127 Zn  3  O  O   0.025   1.000  16.000  12.000
 128 Zn  3  O Cu   0.025   1.000  16.000  12.000
 129 Zn  3  O Zn   0.025   1.000  16.000  12.000
 130 Zn  3 Cu Cu   0.025   1.000  16.000  12.000
 131 Zn  3 Cu Zn   0.025   1.000  16.000  12.000
 132 Zn  3 Zn Zn   0.025   1.000  16.000  12.000
 133 Zn  3  O  O   0.045   1.000   1.000  12.000
 134 Zn  3  O Cu   0.045   1.000   1.000  12.000
 135 Zn  3  O Zn   0.045   1.000   1.000  12.000
 136 Zn  3 Cu Cu   0.045   1.000   1.000  12.000
 137 Zn  3 Cu Zn   0.045   1.000   1.000  12.000
 138 Zn  3 Zn Zn   0.045   1.000   1.000  12.000
 139 Zn  3  O  O   0.045   1.000   2.000  12.000
 140 Zn  3  O Cu   0.045   1.000   2.000  12.000
 141 Zn  3  O Zn   0.045   1.000   2.000  12.000
 142 Zn  3 Cu Cu   0.045   1.000   2.000  12.000
 143 Zn  3 Cu Zn   0.045   1.000   2.000  12.000
 144 Zn  3 Zn Zn   0.045   1.000   2.000  12.000
 145 Zn  3  O  O   0.045   1.000   4.000  12.000
 146 Zn  3  O Cu   0.045   1.000   4.000  12.000
 147 Zn  3  O Zn   0.045   1.000   4.000  12.000
 148 Zn  3 Cu Cu   0.045   1.000   4.000  12.000
 149 Zn  3 Cu Zn   0.045   1.000   4.000  12.000
 150 Zn  3 Zn Zn   0.045   1.000   4.000  12.000
 151 Zn  3  O  O   0.045   1.000  16.000  12.000
 152 Zn  3  O Cu   0.045   1.000  16.000  12.000
 153 Zn  3  O Zn   0.045   1.000  16.000  12.000
 154 Zn  3 Cu Cu   0.045   1.000  16.000  12.000
 155 Zn  3 Cu Zn   0.045   1.000  16.000  12.000
 156 Zn  3 Zn Zn   0.045   1.000  16.000  12.000
Reading scaling.data...
Finished reading scaling.data.
rcmax = 12.000000
Grouping symmetry functions...
Printing symmetry function groups...
short range atomic symmetry functions groups of element  O
   1  O  2  O                  *       *  12.000    8
   2  O  2 Cu                  *       *  12.000    8
   3  O  2 Zn                  *       *  12.000    8
   4  O  3  O  O       *       *       *  12.000   22
   5  O  3  O Cu       *       *       *  12.000   22
   6  O  3  O Zn       *       *       *  12.000   22
   7  O  3 Cu Cu       *       *       *  12.000   22
   8  O  3 Cu Zn       *       *       *  12.000   22
   9  O  3 Zn Zn       *       *       *  12.000   22
short range atomic symmetry functions groups of element Cu
   1 Cu  2  O                  *       *  12.000    8
   2 Cu  2 Cu                  *       *  12.000    8
   3 Cu  2 Zn                  *       *  12.000    8
   4 Cu  3  O  O       *       *       *  12.000   22
   5 Cu  3  O Cu       *       *       *  12.000   22
   6 Cu  3  O Zn       *       *       *  12.000   22
   7 Cu  3 Cu Cu       *       *       *  12.000   22
   8 Cu  3 Cu Zn       *       *       *  12.000   22
   9 Cu  3 Zn Zn       *       *       *  12.000   22
short range atomic symmetry functions groups of element Zn
   1 Zn  2  O                  *       *  12.000    8
   2 Zn  2 Cu                  *       *  12.000    8
   3 Zn  2 Zn                  *       *  12.000    8
   4 Zn  3  O  O       *       *       *  12.000   22
   5 Zn  3  O Cu       *       *       *  12.000   22
   6 Zn  3  O Zn       *       *       *  12.000   22
   7 Zn  3 Cu Cu       *       *       *  12.000   22
   8 Zn  3 Cu Zn       *       *       *  12.000   22
   9 Zn  3 Zn Zn       *       *       *  12.000   22
RuNNer pair style setup completed.
  update every 1 steps, delay 10 steps, check yes
Step Temp E_pair E_mol TotEng Press
0          300   -605940.02            0   -605939.44    165682.88
Averages over the last 101 of 201 rows, steps 5000 to 10000:
Temp E_pair E_mol TotEng Press
300.448 -605957 0 -605956 -24619.7
Loop time of 26.6695 on 12 procs for 10000 steps with 16 atoms

write_restart traj/endcfg.res
###############################################################################
# CLEAN UP
###############################################################################
undump XYZ
unfix AVE_TD
unfix INT
###############################################################################
